results/2026-03-03/bilevel_comparisons_single_period/solution_bus_motivation_a_equality_min.csv
bus_id,vm_avg,z_voltage
1,1.0009359511885887,1.0
2,1.0009359543661602,1.0
3,1.008872600526798,1.0
4,1.0009426228208032,1.0
5,1.008867760029543,1.0
6,1.014889156509222,1.0
7,1.0049269370830318,1.0
8,1.0091145518871174,1.0
9,1.0091145518871174,1.0
10,1.0091145514987863,1.0
11,1.0009426191102684,1.0
12,1.0088677644739923,1.0
13,1.0083955566194749,1.0
14,1.0049345598378832,1.0
15,1.0091145518871174,1.0
16,1.0091145518871174,1.0
